41
mbtca_wat_aa_agi_bal_ajm_abe.log	Energy:    -608.9977454
C          1.69540       -1.14048       -0.24277
C          0.16752       -1.36686       -0.28687
O          2.39409       -2.19728        0.12630
C         -0.22159       -2.39032        0.78336
C         -0.17074       -1.88208       -1.68699
C         -0.53078       -0.00526        0.02674
C         -2.02893       -0.22309        0.19183
C         -0.30944        1.06628       -1.04953
H         -0.11986        0.36261        1.01112
H         -1.09912        1.01809       -1.83532
H          0.65914        0.87404       -1.58923
C         -0.21923        2.43398       -0.44520
O         -1.20569        3.24696       -0.93435
O         -2.42183       -0.00025        1.44474
O         -2.82645       -0.53816       -0.68335
H          0.42207       -3.28392        0.72712
H         -1.25579       -2.73497        0.66768
H         -0.11432       -1.99574        1.80175
H          0.20031       -2.90515       -1.83681
H          0.25525       -1.26104       -2.48314
H         -1.26098       -1.90445       -1.84479
H          3.50673       -2.00912        0.19344
H         -3.49161       -0.17763        1.61999
H         -1.16471        4.17534       -0.57008
O          2.24737       -0.08184       -0.54602
O          0.58356        2.86977        0.35329
O          4.79872        0.72125        0.10034
H          3.94283        0.76208       -0.38672
H          4.73017        1.44940        0.75126
H         -4.68210       -1.45219       -0.95017
O         -5.24086       -0.65936       -0.83893
H         -4.66807        0.06537       -1.15716
H          5.26079       -1.51034       -0.44414
O          4.88009       -1.69498        0.43204
H          4.81952       -0.75627        0.84477
H         -5.33691        0.54359        1.93209
O         -4.96899       -0.31643        1.72480
H         -5.27538       -0.52537        0.76816
H          2.60354        3.00386        1.08137
O          2.95439        2.11594        0.98601
H          2.21998        1.58371        0.63648
